Version 4.1
SHEET 1 1072 680
WIRE 448 -96 144 -96
WIRE 672 -96 448 -96
WIRE 448 -64 448 -96
WIRE 672 -64 672 -96
WIRE 144 0 144 -96
WIRE 672 80 672 16
WIRE 672 96 672 80
WIRE 144 144 144 80
WIRE 224 176 208 176
WIRE 304 176 224 176
WIRE 448 176 448 16
WIRE 448 176 368 176
WIRE 624 176 448 176
WIRE 208 240 208 176
WIRE 448 256 448 176
WIRE 672 256 672 192
WIRE 208 368 208 320
WIRE 448 368 448 336
FLAG 208 368 0
FLAG 448 368 0
FLAG 144 144 0
FLAG 672 256 0
FLAG 672 80 Vout
FLAG 448 176 Vin
FLAG 224 176 Vsin
SYMBOL voltage 144 -16 R0
WINDOW 123 0 0 Left 0
WINDOW 39 0 0 Left 0
SYMATTR InstName V1
SYMATTR Value 6V
SYMBOL voltage 208 224 R0
WINDOW 123 0 0 Left 0
WINDOW 39 0 0 Left 0
SYMATTR InstName V2
SYMATTR Value SINE(0 0.1 1k)
SYMBOL cap 368 160 R90
WINDOW 0 0 32 VBottom 2
WINDOW 3 32 32 VTop 2
SYMATTR InstName C1
SYMATTR Value 10µ
SYMBOL res 656 -80 R0
SYMATTR InstName R1
SYMATTR Value 330
SYMBOL res 432 240 R0
SYMATTR InstName R2
SYMATTR Value 10k
SYMBOL res 432 -80 R0
SYMATTR InstName R3
SYMATTR Value 22k
SYMBOL nmos 624 96 R0
SYMATTR InstName M1
SYMATTR Value ALD1103N
TEXT 784 296 Left 2 !.inc ALD1103N.txt
TEXT 736 392 Left 2 !.tran 0 10ms 0 0.1ms
