Version 4.1
SHEET 1 912 680
WIRE 192 -128 -112 -128
WIRE 416 -128 192 -128
WIRE 192 -96 192 -128
WIRE 416 -96 416 -128
WIRE -112 -32 -112 -128
WIRE 416 32 416 -16
WIRE 624 32 416 32
WIRE 416 48 416 32
WIRE 416 64 416 48
WIRE 624 64 624 32
WIRE -112 112 -112 48
WIRE -32 144 -48 144
WIRE 48 144 -32 144
WIRE 192 144 192 -16
WIRE 192 144 112 144
WIRE 368 144 192 144
WIRE -48 208 -48 144
WIRE 624 208 624 144
WIRE 192 224 192 144
WIRE 416 224 416 160
WIRE -48 336 -48 288
WIRE 192 336 192 304
FLAG -48 336 0
FLAG 192 336 0
FLAG -112 112 0
FLAG 416 224 0
FLAG 416 48 Vout
FLAG 192 144 Vin
FLAG -32 144 Vsin
FLAG 624 208 0
SYMBOL voltage -112 -48 R0
WINDOW 123 0 0 Left 0
WINDOW 39 0 0 Left 0
SYMATTR InstName V1
SYMATTR Value 6V
SYMBOL voltage -48 192 R0
WINDOW 123 0 0 Left 0
WINDOW 39 0 0 Left 0
SYMATTR InstName V2
SYMATTR Value SINE(0 0.1 1k)
SYMBOL cap 112 128 R90
WINDOW 0 0 32 VBottom 2
WINDOW 3 32 32 VTop 2
SYMATTR InstName C1
SYMATTR Value 10µ
SYMBOL res 400 -112 R0
SYMATTR InstName R1
SYMATTR Value 330
SYMBOL res 176 208 R0
SYMATTR InstName R2
SYMATTR Value 10k
SYMBOL res 176 -112 R0
SYMATTR InstName R3
SYMATTR Value 22k
SYMBOL nmos 368 64 R0
SYMATTR InstName M1
SYMATTR Value ALD1103N
SYMBOL res 608 48 R0
SYMATTR InstName R4
SYMATTR Value 10k
TEXT 416 368 Left 2 !.inc ALD1103N.txt
TEXT 416 312 Left 2 !.tran 0 10ms 0 0.1ms
