Version 4.1
SHEET 1 880 680
WIRE 176 -144 -128 -144
WIRE 400 -144 176 -144
WIRE 176 -112 176 -144
WIRE 400 -112 400 -144
WIRE -128 -48 -128 -144
WIRE 400 32 400 -32
WIRE 400 48 400 32
WIRE -128 96 -128 32
WIRE -48 128 -64 128
WIRE 32 128 -48 128
WIRE 176 128 176 -32
WIRE 176 128 96 128
WIRE 352 128 176 128
WIRE 400 176 400 144
WIRE -64 192 -64 128
WIRE 176 208 176 128
WIRE -64 320 -64 272
WIRE 176 320 176 288
WIRE 400 320 400 256
FLAG -64 320 0
FLAG 176 320 0
FLAG -128 96 0
FLAG 400 32 Vout
FLAG 176 128 Vin
FLAG -48 128 Vsin
FLAG 400 320 0
SYMBOL voltage -128 -64 R0
WINDOW 123 0 0 Left 0
WINDOW 39 0 0 Left 0
SYMATTR InstName V1
SYMATTR Value 6V
SYMBOL voltage -64 176 R0
WINDOW 123 0 0 Left 0
WINDOW 39 0 0 Left 0
SYMATTR InstName V2
SYMATTR Value SINE(0 0.1 1k)
SYMBOL cap 96 112 R90
WINDOW 0 0 32 VBottom 2
WINDOW 3 32 32 VTop 2
SYMATTR InstName C1
SYMATTR Value 10µ
SYMBOL res 384 -128 R0
SYMATTR InstName R1
SYMATTR Value 330
SYMBOL res 160 192 R0
SYMATTR InstName R2
SYMATTR Value 14.7k
SYMBOL res 160 -128 R0
SYMATTR InstName R3
SYMATTR Value 22k
SYMBOL nmos 352 48 R0
SYMATTR InstName M1
SYMATTR Value ALD1103N
SYMBOL res 384 160 R0
SYMATTR InstName R4
SYMATTR Value 100
TEXT 520 256 Left 2 !.inc ALD1103N.txt
TEXT 520 320 Left 2 !.tran 0 10ms 0 0.1ms
