Version 4.1
SHEET 1 936 680
WIRE 32 -144 -256 -144
WIRE 368 -144 32 -144
WIRE 32 -64 32 -144
WIRE -256 -48 -256 -144
WIRE 368 -16 368 -144
WIRE 32 64 32 16
WIRE 320 64 32 64
WIRE -256 112 -256 32
WIRE 32 128 32 64
WIRE 368 176 368 80
WIRE -16 208 -208 208
WIRE -208 224 -208 208
WIRE 32 304 32 224
WIRE 368 304 368 256
WIRE -208 336 -208 304
WIRE -208 448 -208 416
FLAG -256 112 0
FLAG 368 304 0
FLAG 32 304 0
FLAG -208 448 0
SYMBOL voltage -256 -64 R0
WINDOW 123 0 0 Left 0
WINDOW 39 0 0 Left 0
SYMATTR InstName Vdd1
SYMATTR Value 6V
SYMBOL res 16 -80 R0
SYMATTR InstName Rd1
SYMATTR Value 6k
SYMBOL res 352 160 R0
SYMATTR InstName RL1
SYMATTR Value 8
SYMBOL nmos 320 -16 R0
SYMATTR InstName M1
SYMATTR Value ALD1103N
SYMBOL nmos -16 128 R0
SYMATTR InstName M2
SYMATTR Value ALD1103N
SYMBOL voltage -208 208 R0
WINDOW 123 0 0 Left 0
WINDOW 39 0 0 Left 0
SYMATTR InstName Vin1
SYMATTR Value SINE(0 100m 1k)
SYMBOL voltage -208 320 R0
WINDOW 123 0 0 Left 0
WINDOW 39 0 0 Left 0
SYMATTR InstName Vb1
SYMATTR Value 1V
TEXT 112 -88 Left 2 !.inc ALD1103N.txt
TEXT 232 400 Left 2 !.tran 0 10ms 0 0.1ms
