.MODEL MyNMOS NMOS VTO=0.7 KP=134E-6 LAMBDA=0.1 GAMMA=0.45 LD=0.08U