.MODEL MyPMOS PMOS VTO=-0.8 KP=38E-6 LAMBDA=0.2 GAMMA=0.4 LD=0.09U