Version 4.1
SHEET 1 880 680
WIRE 272 32 -16 32
WIRE 272 80 272 32
WIRE 224 96 112 96
WIRE -16 112 -16 32
WIRE -16 224 -16 192
WIRE 112 224 112 96
WIRE 272 240 272 176
WIRE 112 352 112 304
WIRE 272 352 272 320
FLAG -16 224 0
FLAG 112 352 0
FLAG 272 352 0
SYMBOL pmos 224 176 M180
SYMATTR InstName M1
SYMATTR Value ALD1103P
SYMBOL voltage -16 96 R0
SYMATTR InstName Vs
SYMATTR Value 6V
SYMBOL voltage 112 208 R0
SYMATTR InstName Vg
SYMATTR Value 0V
SYMBOL voltage 272 224 R0
SYMATTR InstName Vd
SYMATTR Value 5.8V
TEXT 504 216 Left 2 !.dc Vg 0 4 0.1
TEXT 464 312 Left 2 !.inc ALD1103P.txt
