Version 4.1
SHEET 1 880 680
WIRE 192 -144 -176 -144
WIRE 192 -48 192 -144
WIRE 192 80 192 32
WIRE 144 160 -16 160
WIRE -176 176 -176 -144
WIRE -16 176 -16 160
WIRE 192 272 192 176
WIRE -176 320 -176 256
WIRE -16 320 -16 256
FLAG 192 272 0
FLAG -176 320 0
FLAG -16 320 0
SYMBOL nmos 144 80 R0
SYMATTR InstName M1
SYMATTR Value ALD1103N
SYMBOL voltage -16 160 R0
WINDOW 123 0 0 Left 0
WINDOW 39 0 0 Left 0
SYMATTR InstName Vg
SYMATTR Value 4V
SYMBOL voltage -176 160 R0
SYMATTR InstName Vd
SYMATTR Value 6V
SYMBOL res 176 -64 R0
SYMATTR InstName R1
SYMATTR Value 10k
TEXT 360 288 Left 2 !.inc ALD1103N.txt
TEXT 368 216 Left 2 !.dc Vg 0 6 0.1
